 &time_control
 run_days                            = 0,
 run_hours                           = 0,
 run_minutes                         = 0,
 run_seconds                         = 0,
 start_year           	             = 2018,     2018,      2019,
 start_month	                     = 04,     04,      09,
 start_day               	     = 25,     25,      22,
 start_hour   	                     = 00,     00,      18,
 start_minute            	     = 00,     00,      00,
 start_second 	                     = 00,     00,      00,
 end_year  	                     = 2018,     2018,      2019,
 end_month 	                     = 04,     04,      09,
 end_day   	                     = 30,     30,      23,
 end_hour  	                     = 00,     00,      06,
 end_minute	                     = 00,     00,      00,
 end_second	                     = 00,     00,      00,
 interval_seconds                    = 21600
 input_from_file                     = .true.,.true.,.true.,
 history_interval                    = 1440,  1440,   15,
 frames_per_outfile                  = 100, 100, 1000,
 restart                             = .false.,
 restart_interval                    = 1440,
 io_form_history                     = 2
 io_form_restart                     = 2
 io_form_input                       = 2
 io_form_boundary                    = 2
 ignore_iofields_warning	     = .true.,
 debug_level                         = 0
 history_outname		     ='./wrfout_d<domain>_<date>'
 history_begin_h =17,17,0
 output_diagnostics = 1
 auxhist3_outname = "./wrfxtrm_d<domain>_<date>"
 auxhist3_interval = 1440, 1440, 10,
 auxhist3_begin_h          = 17,17,0
 frames_per_auxhist3 = 1, 1,
 io_form_auxhist3 = 2
 auxhist9_outname = "./wrfcdx_d<domain>_<date>"
 auxhist9_interval = 1440, 1440,
 auxhist9_begin_h = 17,17,0
 frames_per_auxhist9 = 1, 1,
 io_form_auxhist9 = 2
/


 &domains
 time_step                           = 180,
 time_step_fract_num                 = 0,
 time_step_fract_den                 = 1,
 max_dom                             = 2,
 e_we                                = 41,    221,   100,
 e_sn                                = 41,    221,    163,
 e_vert                              = 35,    35,    35,
 p_top_requested                     = 5000,
 num_metgrid_levels                  = 32,
 num_metgrid_soil_levels             = 4,
 dx                                  = 50000, 5000,  3000,
 dy                                  = 50000, 5000,  3000,
 grid_id                             = 1,     2,     3,
 parent_id                           = 1,     1,     2,
 i_parent_start                      = 1,     9,    35,
 j_parent_start                      = 1,     9,    35,
 parent_grid_ratio                   = 1,     10,     3,
 parent_time_step_ratio              = 1,     1,     3,
 feedback                            = 1,
 smooth_option                       = 0
 use_adaptive_time_step   = .true.,
 step_to_output_time      = .true.,
 target_cfl               = 1.2,      1.2,      1.2,     1.2,
 target_hcfl              = .84,      .84,      .84,     .84
 max_step_increase_pct    = 5,        51,       51,      51,
 starting_time_step       = -1,       -1,       -1,      -1,
 max_time_step            = -1,      -1,      40,      15,
 min_time_step            = -1,      -1,       10,      3,
 adaptation_domain = 1,
 /

 &physics
 mp_physics                          = 2,     2,     3,
 ra_lw_physics                       = 1,     1,     99,
 ra_sw_physics                       = 1,     1,     99,
 radt                                = 30,    30,    10,
 sf_sfclay_physics                   = 1,     1,     2,
 sf_surface_physics                  = 2,     2,     2,
 bl_pbl_physics                      = 1,     1,     2,
 bldt                                = 0,     0,     0,
 cu_physics                          = 2,     2,     2,
 cudt                                = 5,     5,     5,
 isfflx				     = 1,
 icloud                              = 1,
 surface_input_source		     = 3,
 num_soil_layers                     = 4,
 num_land_cat			     = 21,
 sf_urban_physics		     = 0,     0,     0,
/

&cordex
 output_cordex              = 1 
 psl_diag                   = 3
 psmooth                    = 5
 ptarget                    = 70000.
 output_wb                  = 0,
 wsgs_diag                  = 1
 wsz100_diag                = 1
 z100m_wind                  = 100.
 zmlagen_dqv                = 0.1
 zmlagen_dtheta             = 1.5
 potevp_diag     	    = 1
 convxtrm_diag              = 0
 fogvisibility_diag         = 1
 fogvars                    = 1
/

 &fdda
 /

 &dynamics
 w_damping                           = 0,
 diff_opt                            = 1,
 km_opt                              = 4,
 diff_6th_opt                        = 0,      0,      0,
 diff_6th_factor                     = 0.12,   0.12,   0.12,
 base_temp                           = 290.
 damp_opt                            = 0,
 zdamp                               = 5000.,  5000.,  5000.,
 dampcoef                            = 0.2,    0.2,    0.2
 khdif                               = 0,      0,      0,
 kvdif                               = 0,      0,      0,
 non_hydrostatic                     = .true., .true., .true.,
 moist_adv_opt                       = 1,      1,      1,     
 scalar_adv_opt                      = 1,      1,      1,     
 /

 &bdy_control
 spec_bdy_width                      = 5,
 spec_zone                           = 1,
 relax_zone                          = 4,
 specified                           = .true., .false.,.false.,
 nested                              = .false., .true., .true.,
 /

 &grib2
 /

 &namelist_quilt
 nio_tasks_per_group = 0,
 nio_groups = 1,
 /
